data_image0
_chemical_formula_structural       B4N4
_chemical_formula_sum              "B4 N4"
_cell_length_a       3.626
_cell_length_b       3.626
_cell_length_c       3.626
_cell_angle_alpha    90
_cell_angle_beta     90
_cell_angle_gamma    90

_space_group_name_H-M_alt    "P 1"
_space_group_IT_number       1

loop_
  _space_group_symop_operation_xyz
  'x, y, z'

loop_
  _atom_site_type_symbol
  _atom_site_label
  _atom_site_symmetry_multiplicity
  _atom_site_fract_x
  _atom_site_fract_y
  _atom_site_fract_z
  _atom_site_occupancy
  B   B1        1.0  0.12500  0.12500  0.12500  1.0000
  B   B2        1.0  0.12500  0.62500  0.62500  1.0000
  B   B3        1.0  0.62500  0.12500  0.62500  1.0000
  B   B4        1.0  0.62500  0.62500  0.12500  1.0000
  N   N1        1.0  0.37500  0.37500  0.87500  1.0000
  N   N2        1.0  0.37500  0.87500  0.37500  1.0000
  N   N3        1.0  0.87500  0.37500  0.37500  1.0000
  N   N4        1.0  0.87500  0.87500  0.87500  1.0000
