data_image0
_chemical_formula_structural       C2
_chemical_formula_sum              "C2"
_cell_length_a       2.466
_cell_length_b       2.466
_cell_length_c       20
_cell_angle_alpha    90
_cell_angle_beta     90
_cell_angle_gamma    60

_space_group_name_H-M_alt    "P 1"
_space_group_IT_number       1

loop_
  _space_group_symop_operation_xyz
  'x, y, z'

loop_
  _atom_site_type_symbol
  _atom_site_label
  _atom_site_symmetry_multiplicity
  _atom_site_fract_x
  _atom_site_fract_y
  _atom_site_fract_z
  _atom_site_occupancy
  C   C1        1.0  0.33333  0.33333  0.50000  1.0000
  C   C2        1.0  0.66667  0.66667  0.50000  1.0000
