data_image0
_chemical_formula_structural       C4
_chemical_formula_sum              "C4"
_cell_length_a       2.51652
_cell_length_b       2.51652
_cell_length_c       4.18036
_cell_angle_alpha    90
_cell_angle_beta     90
_cell_angle_gamma    120

_space_group_name_H-M_alt    "P 1"
_space_group_IT_number       1

loop_
  _space_group_symop_operation_xyz
  'x, y, z'

loop_
  _atom_site_type_symbol
  _atom_site_label
  _atom_site_symmetry_multiplicity
  _atom_site_fract_x
  _atom_site_fract_y
  _atom_site_fract_z
  _atom_site_occupancy
  C   C1        1.0  0.33333  0.66667  0.06219  1.0000
  C   C2        1.0  0.66667  0.33333  0.93781  1.0000
  C   C3        1.0  0.66667  0.33333  0.56219  1.0000
  C   C4        1.0  0.33333  0.66667  0.43781  1.0000
